*Heading
** Job name: Job-1-deformed Model name: Weld-new
** Generated by: Abaqus/CAE 2019
*Preprint, echo=NO, model=NO, history=NO, contact=NO
**
** PARTS
**
*Part, name=Part-1
*Node
      1, -0.0055952305, 0.0500001535, 1.53990413e-07
      2, -0.00559543399, 0.0500001535, -0.0101581523
      3, -0.0249990653, 0.0500004143, -0.0101584159
      4, -0.0249992013, 0.0500004143, -0.000158416107
      5, -0.00559611432, 1.5222173e-07, -0.0101581523
      6, -0.0249997452, 4.16111106e-07, -0.0101584159
      7, -0.0249998812, 4.16112982e-07, -0.000158416107
      8, -0.00559591036, 1.52218959e-07, 1.53990413e-07
      9, 0.00551395118, 0.0500000007, -0.0101580014
     10, 0.00559660606, 0.0500000007, 1.54156581e-07
     11, 0.0055959262, 9.97889531e-12, 1.54156581e-07
     12, 0.00551327085, 1.13408927e-09, -0.0101580014
     13, -0.0055952305, 0.0650001541, 1.52323437e-07
     14, -0.00559523003, 0.0650001541, -0.0101581523
     15, -0.0249988623, 0.0650004148, -0.0101584159
     16, -0.0249989983, 0.0650004148, -0.000158416107
     17, 0.00551415514, 0.0649999976, -0.0101580014
     18, 0.00559681002, 0.0649999976, 1.52496767e-07
     19, 0.0250009336, 0.0499997362, -0.010157736
     20, 0.0250011384, 0.0649997368, -0.010157736
** ... 12124 like lines cut
*Element, type=C3D8T
   1,  166, 1313, 5710,  823,    1,   33,  783,   50
   2, 1313, 1314, 5711, 5710,   33,   34,  784,  783
   3, 1314, 1315, 5712, 5711,   34,   35,  785,  784
   4, 1315, 1316, 5713, 5712,   35,   36,  786,  785
   5, 1316,  216, 1068, 5713,   36,    2,   37,  786
   6,  823, 5710, 5714,  824,   50,  783,  787,   49
   7, 5710, 5711, 5715, 5714,  783,  784,  788,  787
   8, 5711, 5712, 5716, 5715,  784,  785,  789,  788
   9, 5712, 5713, 5717, 5716,  785,  786,  790,  789
  10, 5713, 1068, 1069, 5717,  786,   37,   38,  790
  11,  824, 5714, 5718,  825,   49,  787,  791,   48
  12, 5714, 5715, 5719, 5718,  787,  788,  792,  791
  13, 5715, 5716, 5720, 5719,  788,  789,  793,  792
  14, 5716, 5717, 5721, 5720,  789,  790,  794,  793
  15, 5717, 1069, 1070, 5721,  790,   38,   39,  794
  16,  825, 5718, 5722,  826,   48,  791,  795,   47
  17, 5718, 5719, 5723, 5722,  791,  792,  796,  795
  18, 5719, 5720, 5724, 5723,  792,  793,  797,  796
  19, 5720, 5721, 5725, 5724,  793,  794,  798,  797
  20, 5721, 1070, 1071, 5725,  794,   39,   40,  798
** ... 9880 like lines cut
*Nset, nset=Set-weld, generate
     1,  12144,      1
*Elset, elset=Set-weld, generate
    1,  9900,     1
** Section: Section-TC4
*Solid Section, elset=Set-weld, material=Material-TC4
,
*End Part
**  
**
** ASSEMBLY
**
*Assembly, name=Assembly
**  
*Instance, name=Part-1-1, part=Part-1
*End Instance
**  
*Nset, nset=Set-11, instance=Part-1-1
    2,    3,    5,    6,    9,   12,   14,   15,   17,   19,   20,   23,   26,   27,   29,   30
   37,   38,   39,   40,   41,   55,   56,   57,   58,   59,  435,  436,  437,  438,  439,  457
  458,  459,  460,  461,  462,  463,  464,  503,  504,  505,  506,  507,  508,  509,  510,  511
  512,  513,  514,  515,  516,  517,  518,  519,  520,  543,  544,  545,  546,  547,  659,  660
  661,  662,  663,  681,  682,  683,  684,  685,  686,  687,  688,  689,  690,  691,  692,  693
  711,  712,  713,  714,  719,  720,  721,  722, 3531, 3532, 3533, 3534, 3535, 3536, 3537, 3538
 3539, 3540, 3541, 3542, 3543, 3544, 3545, 3546, 3547, 3548, 3549, 3550, 3779, 3780, 3781, 3782
 3783, 3784, 3785, 3786, 3787, 3788, 3789, 3790, 3791, 3792, 3793, 3794, 3795, 3796, 3797, 3798
 4621, 4622, 4623, 4624, 4625, 4626, 4627, 4628, 4629, 4630, 4631, 4632, 4633, 4634, 4635, 4636
 4637, 4638, 4639, 4640, 4725, 4726, 4727, 4728, 4729, 4730, 4731, 4732, 4733, 4734, 4735, 4736
 4737, 4738, 4739, 4740, 4741, 4742, 4743, 4744
*Elset, elset=Set-11, instance=Part-1-1
 5505, 5510, 5515, 5520, 5525, 5530, 5535, 5540, 5545, 5550, 5555, 5560, 5565, 5570, 5575, 5580
 5585, 5590, 5595, 5600, 5605, 5610, 5615, 5620, 5625, 5630, 5635, 5640, 5645, 5650, 6051, 6052
 6053, 6054, 6055, 6056, 6057, 6058, 6059, 6060, 6061, 6062, 6063, 6064, 6065, 6066, 6067, 6068
 6069, 6070, 6071, 6072, 6073, 6074, 6075, 6076, 6077, 6078, 6079, 6080, 7705, 7710, 7715, 7720
 7725, 7730, 7735, 7740, 7745, 7750, 7755, 7760, 7765, 7770, 7775, 7780, 7785, 7790, 7795, 7800
 7805, 7810, 7815, 7820, 7825, 7830, 7835, 7840, 7845, 7850, 7851, 7852, 7853, 7854, 7855, 7856
 7881, 7882, 7883, 7884, 7885, 7886, 7911, 7912, 7913, 7914, 7915, 7916, 7941, 7942, 7943, 7944
 7945, 7946, 7971, 7972, 7973, 7974, 7975, 7976
*Elset, elset=_Surf-1_S2, internal, instance=Part-1-1
 5621, 5622, 5623, 5624, 5625, 5626, 5627, 5628, 5629, 5630, 5631, 5632, 5633, 5634, 5635, 5636
 5637, 5638, 5639, 5640, 5641, 5642, 5643, 5644, 5645, 5646, 5647, 5648, 5649, 5650, 5971, 5972
 5973, 5974, 5975, 5976, 5977, 5978, 5979, 5980, 5981, 5982, 5983, 5984, 5985, 5986, 5987, 5988
 5989, 5990, 5991, 5992, 5993, 5994, 5995, 5996, 5997, 5998, 5999, 6000, 6001, 6002, 6003, 6004
 6005, 6006, 6007, 6008, 6009, 6010, 6011, 6012, 6013, 6014, 6015, 6016, 6017, 6018, 6019, 6020
 6021, 6022, 6023, 6024, 6025, 6026, 6027, 6028, 6029, 6030, 6031, 6032, 6033, 6034, 6035, 6036
 6037, 6038, 6039, 6040, 6041, 6042, 6043, 6044, 6045, 6046, 6047, 6048, 6049, 6050
*Elset, elset=_Surf-1_S5, internal, instance=Part-1-1
 6075, 6076, 6077, 6078, 6079, 6080, 6105, 6106, 6107, 6108, 6109, 6110, 6135, 6136, 6137, 6138
 6139, 6140, 6165, 6166, 6167, 6168, 6169, 6170, 6195, 6196, 6197, 6198, 6199, 6200
*Surface, type=ELEMENT, name=Surf-1
_Surf-1_S2, S2
_Surf-1_S5, S5
*End Assembly
** 
** MATERIALS
** 
*Material, name=Material-TC4
*Conductivity
  6.8, 293.
  7.4, 373.
  8.7, 473.
  9.8, 573.
 10.3, 673.
 11.8, 773.
 13.7, 873.
 14.4, 973.
 15.8,1073.
 18.3,1273.
 21.7,1473.
 24.5,1673.
 25.3,1813.
  35.,1923.
  35.,2073.
*Density
4424., 298.
4414., 373.
4402., 473.
4388., 573.
4374., 673.
4360., 773.
4344., 873.
4329., 973.
4315.,1073.
4314.,1273.
4277.,1473.
4238.,1673.
4208.,1813.
4184.,1923.
3986.,2073.
3986.,2373.
*Elastic
 1.09e+11,   0.3,  293.
  9.4e+10,  0.31,  473.
    8e+10, 0.325,  673.
  6.6e+10, 0.342,  873.
  4.8e+10, 0.346,  973.
  3.5e+10,  0.35, 1073.
  2.2e+10, 0.358, 1273.
    5e+09, 0.366, 1473.
    1e+08, 0.374, 1673.
    1e+07,  0.38, 1813.
    1e+07, 0.384, 1923.
    1e+07, 0.384, 2073.
*Expansion
  8.4e-06, 293.
  9.2e-06, 473.
  9.5e-06, 673.
    1e-05, 873.
 1.04e-05, 973.
 1.09e-05,1073.
  1.1e-05,1273.
  1.1e-05,1473.
  1.1e-05,1673.
  1.1e-05,1813.
  1.1e-05,1923.
  1.1e-05,2073.
*Inelastic Heat Fraction
         0.9,
*Plastic, hardening=KINEMATIC
 8.82e+08,   0., 298.
  9.6e+08,   1., 298.
 6.23e+08,   0., 473.
 7.65e+08,   1., 473.
 5.43e+08,   0., 673.
  6.7e+08,   1., 673.
  3.4e+08,   0., 873.
  3.4e+08,   1., 873.
  2.8e+08,   0., 973.
  2.8e+08,   1., 973.
  1.3e+08,   0.,1073.
  1.3e+08,   1.,1073.
    9e+07,   0.,1273.
    9e+07,   1.,1273.
  6.6e+07,   0.,1473.
  6.6e+07,   1.,1473.
  3.1e+07,   0.,1673.
  3.1e+07,   1.,1673.
  1.2e+07,   0.,1813.
  1.2e+07,   1.,1813.
** ... 6 like lines cut
*Specific Heat
611., 293.
624., 373.
653., 473.
674., 573.
691., 673.
703., 773.
713., 873.
725., 973.
735.,1073.
754.,1273.
771.,1473.
787.,1673.
800.,1813.
806.,1923.
806.,2073.
** 
** BOUNDARY CONDITIONS
** 
** Name: BC-1 Type: Symmetry/Antisymmetry/Encastre
*Boundary
Set-11, ENCASTRE
** ----------------------------------------------------------------
** 
** PREDEFINED FIELDS
** 
** Name: Predefined weld-1C1D-TEMPERATURE                     Type: TEMPERATURE
*Initial Conditions, type=TEMPERATURE
Part-1-1.5, 570.9449367969003
Part-1-1.8, 571.0629150232531
Part-1-1.51, 572.5368034611577
Part-1-1.52, 573.6749369946798
Part-1-1.53, 573.7346174032587
Part-1-1.54, 572.7063299476596
Part-1-1.59, 569.6102882025134
Part-1-1.64, 569.7061381261476
Part-1-1.118, 572.1660438821832
Part-1-1.264, 571.9377014161603
Part-1-1.299, 571.1824243942486
Part-1-1.300, 571.3611028274267
Part-1-1.301, 571.5039446565311
Part-1-1.302, 571.6221293802837
Part-1-1.303, 571.721930163986
Part-1-1.304, 571.8021440002606
Part-1-1.305, 571.8398043735223
Part-1-1.306, 571.866626601686
Part-1-1.321, 571.8183181948289
Part-1-1.322, 571.728227915276
** ... 124 like lines cut
** Name: Predefined weld-1C1D-STRAIN                     Type: PLASTIC STRAIN
*Initial Conditions, type=PLASTIC STRAIN
Part-1-1.1471, 0.00016025988883231913, 0.000141400211470734, -0.00030248587890964517, -6.055987384044967e-05, -0.0001124910613983687, -5.338964156197343e-05
Part-1-1.1472, 2.774915124907846e-05, 3.146897156591972e-05, -5.919038795968255e-05, -1.6463680485379693e-05, -1.4514449719967995e-05, -3.466349531309502e-06
Part-1-1.1473, 0.0, 0.0, 0.0, 0.0, 0.0, 0.0
Part-1-1.1474, 0.0, 0.0, 0.0, 0.0, 0.0, 0.0
Part-1-1.1475, 0.0, 0.0, 0.0, 0.0, 0.0, 0.0
Part-1-1.1476, 0.0, 0.0, 0.0, 0.0, 0.0, 0.0
Part-1-1.1477, 0.0, 0.0, 0.0, 0.0, 0.0, 0.0
Part-1-1.1478, 0.0, 0.0, 0.0, 0.0, 0.0, 0.0
Part-1-1.1479, 0.0, 0.0, 0.0, 0.0, 0.0, 0.0
Part-1-1.1480, 0.0, 0.0, 0.0, 0.0, 0.0, 0.0
Part-1-1.5429, 0.0, 0.0, 0.0, 0.0, 0.0, 0.0
Part-1-1.5430, 0.0, 0.0, 0.0, 0.0, 0.0, 0.0
Part-1-1.5431, 0.0, 0.0, 0.0, 0.0, 0.0, 0.0
Part-1-1.5432, 0.0, 0.0, 0.0, 0.0, 0.0, 0.0
Part-1-1.5433, 0.0, 0.0, 0.0, 0.0, 0.0, 0.0
Part-1-1.5434, 0.0, 0.0, 0.0, 0.0, 0.0, 0.0
Part-1-1.5435, 0.0, 0.0, 0.0, 0.0, 0.0, 0.0
Part-1-1.5436, 0.0, 0.0, 0.0, 0.0, 0.0, 0.0
Part-1-1.5445, -0.0006104061369012602, -0.00028962955247277886, 0.0009006861621123771, 4.5471746331218044e-05, 4.480707680758103e-05, 7.597427978193495e-05
Part-1-1.5446, -0.00035348713055220293, -0.0001701639392521089, 0.0005241648824350254, 4.506578479825073e-05, -1.4058682006401457e-05, -5.630655689193708e-06
** ... 45 like lines cut
** Name: Predefined weld-1C1D-STRESS                     Type: STRESS
*Initial Conditions, type=STRESS
Part-1-1.1471, -5366006.141904058, 8571664.88821909, 4754350.305635683, 190949738.08173448, -15757403.017257975, -43704327.03350303
Part-1-1.1472, 57393624.44722217, 78467494.11872187, 33463052.128236547, 186432817.61047187, -14722681.895142037, -15157225.634400241
Part-1-1.1473, 50764366.10149753, 65787072.617418915, 28431889.07951434, 161659297.6764055, 5885494.449590992, 11694961.7791236
Part-1-1.1474, -5728266.553710975, 35881330.97165917, 20281923.28264849, 110419820.29762113, 26947572.850154888, 37381600.8828077
Part-1-1.1475, -72182847.26714344, -12962334.148702882, 14427682.520698164, 54483075.000993356, 14663850.294511443, 24179687.96905836
Part-1-1.1476, -5523653.7952788845, -27572369.74208934, -8317767.523905632, 134635245.5115674, -16679074.196257764, -16775314.569703586
Part-1-1.1477, 20025108.4770008, -22859440.23581682, -10289307.050267417, 124664030.33038887, -18270930.277852233, -22730495.449671514
Part-1-1.1478, 26083728.99969827, -24066869.16343994, -3673715.0160794635, 107606296.88198234, -413798.51719627634, -7315815.31306227
Part-1-1.1479, -6418520.01276098, -20298734.397665314, 9268579.450467527, 77875433.18910319, 14424855.091422882, 14704895.96202701
Part-1-1.1480, -33673187.74458789, -24080319.850239046, 7686196.963475188, 59164622.03933437, 10878069.047680909, 7922688.173152744
Part-1-1.5429, 64657773.89950825, -77072999.05754267, -9011219.875914471, -18151859.98983135, 13281091.788602883, 27022334.153927248
Part-1-1.5430, 45840848.335248485, -67943603.90664066, -6822324.117907884, -35794637.813319944, 2921844.905014226, 28294485.84623521
Part-1-1.5431, 19144812.54525015, -57614480.99903247, -1138538.3328260302, -43056005.26884555, -5034822.230194126, 29471849.939885683
Part-1-1.5432, -10880159.024465779, -46427226.10761386, 6760526.939692991, -41249488.583559595, -9611316.913883403, 31142033.119224876
Part-1-1.5433, -37542088.28092148, -37700084.17915243, 14140848.616661545, -32897233.456991103, -10063956.85837995, 32796092.63981719
Part-1-1.5434, -58514541.26543361, -31175753.84261561, 19097269.340788096, -20690701.92185454, -7837575.159517565, 34052282.43400564
Part-1-1.5435, -73945630.43371516, -26487482.688748613, 21552170.1633789, -5954517.908179473, -3736249.5582937007, 34333214.32085011
Part-1-1.5436, -84126860.1775032, -23099595.585998952, 21487212.740395762, 10602168.392673444, 1755623.166153346, 33128703.238755316
Part-1-1.5445, -75236391.88111083, 182494924.95150498, 1194936.8738330798, 16849155.04528331, 6645075.146309437, -28615808.565410845
Part-1-1.5446, -76410985.66139628, 168753167.21110028, 17367149.701370068, 42097773.66771164, -7853850.723132111, -18711806.68528215
** ... 45 like lines cut
** STEP: Step-1
** 
*Step, name=Step-1, nlgeom=YES, inc=10000
*Coupled Temperature-displacement, creep=none, deltmx=1000.
0.1, 1., 1e-05, 1.
** 
** LOADS
** 
** Name: Load-1   Type: Surface heat flux
*Dsflux
Surf-1, S, 10086.
** 
** OUTPUT REQUESTS
** 
*Restart, write, frequency=0
** 
** FIELD OUTPUT: F-Output-1
** 
*Output, field, variable=PRESELECT
** 
** HISTORY OUTPUT: H-Output-1
** 
*Output, history, variable=PRESELECT
*End Step
