*Heading
** Job name: Job-1C1Ddeformed Model name: Weld-new
** Generated by: Abaqus/CAE 2019
*Preprint, echo=NO, model=NO, history=NO, contact=NO
**
** PARTS
**
*Part, name=weld-new
*Node
      1, -0.00499999989, -0.00499999989,           0.
      2, -0.00568525214, 0.00529993512,           0.
      3, -0.00568525214, 0.00529993512, -0.0149999997
      4, -0.00499999989, -0.00499999989, -0.0149999997
      5,           0., -0.00499999989,           0.
      6, 1.34808943e-06, 0.00529873976,           0.
      7, 1.34808943e-06, 0.00529873976, -0.0149999997
      8,           0., -0.00499999989, -0.0149999997
      9, -0.00499999989, -0.00499999989, 0.0500000007
     10, -0.00568525214, 0.00529993512, 0.0500000007
     11,           0., -0.00499999989, 0.0500000007
     12, 1.34808943e-06, 0.00529873976, 0.0500000007
     13, -0.00999999978, -0.00499999989,           0.
     14, -0.00999999978, 0.00499999989,           0.
     15, -0.00999999978, 0.00499999989, -0.0149999997
     16, -0.00999999978, -0.00499999989, -0.0149999997
     17, -0.00999999978, -0.00499999989, 0.0500000007
     18, -0.00999999978, 0.00499999989, 0.0500000007
     19, -0.00999999978, 0.00499999989, 0.0649999976
     20, -0.00568525214, 0.00529993512, 0.0649999976
** ... 22476 like lines cut
*Element, type=C3D8R
  1,   108,  1824, 11805,  1662,     1,    43,  1608,    66
  2,  1824,  1825, 11806, 11805,    43,    44,  1609,  1608
  3,  1825,  1826, 11807, 11806,    44,    45,  1610,  1609
  4,  1826,   118,  1743, 11807,    45,     2,    46,  1610
  5,  1662, 11805, 11808,  1663,    66,  1608,  1611,    65
  6, 11805, 11806, 11809, 11808,  1608,  1609,  1612,  1611
  7, 11806, 11807, 11810, 11809,  1609,  1610,  1613,  1612
  8, 11807,  1743,  1744, 11810,  1610,    46,    47,  1613
  9,  1663, 11808, 11811,  1664,    65,  1611,  1614,    64
 10, 11808, 11809, 11812, 11811,  1611,  1612,  1615,  1614
 11, 11809, 11810, 11813, 11812,  1612,  1613,  1616,  1615
 12, 11810,  1744,  1745, 11813,  1613,    47,    48,  1616
 13,  1664, 11811, 11814,  1665,    64,  1614,  1617,    63
 14, 11811, 11812, 11815, 11814,  1614,  1615,  1618,  1617
 15, 11812, 11813, 11816, 11815,  1615,  1616,  1619,  1618
 16, 11813,  1745,  1746, 11816,  1616,    48,    49,  1619
 17,  1665, 11814, 11817,  1666,    63,  1617,  1620,    62
 18, 11814, 11815, 11818, 11817,  1617,  1618,  1621,  1620
 19, 11815, 11816, 11819, 11818,  1618,  1619,  1622,  1621
 20, 11816,  1746,  1747, 11819,  1619,    49,    50,  1622
** ... 18060 like lines cut
*Nset, nset=Set-weld, generate
     1,  22496,      1
*Elset, elset=Set-weld, generate
     1,  18080,      1
** Section: Section-1
*Solid Section, elset=Set-weld, material=Material-TC4
,
*End Part
**  
**
** ASSEMBLY
**
*Assembly, name=Assembly
**  
*Instance, name=weld-new-1, part=weld-new
*End Instance
**  
*End Assembly
** 
** MATERIALS
** 
*Material, name=Material-TC4
*Conductivity
  6.8, 293.
  7.4, 373.
  8.7, 473.
  9.8, 573.
 10.3, 673.
 11.8, 773.
 13.7, 873.
 14.4, 973.
 15.8,1073.
 18.3,1273.
 21.7,1473.
 24.5,1673.
 25.3,1813.
  35.,1923.
  35.,2073.
*Density
4424., 298.
4414., 373.
4402., 473.
4388., 573.
4374., 673.
4360., 773.
4344., 873.
4329., 973.
4315.,1073.
4314.,1273.
4277.,1473.
4238.,1673.
4208.,1813.
4184.,1923.
3986.,2073.
3986.,2373.
*Elastic
 1.09e+11,   0.3,  293.
  9.4e+10,  0.31,  473.
    8e+10, 0.325,  673.
  6.6e+10, 0.342,  873.
  4.8e+10, 0.346,  973.
  3.5e+10,  0.35, 1073.
  2.2e+10, 0.358, 1273.
    5e+09, 0.366, 1473.
    1e+08, 0.374, 1673.
    1e+07,  0.38, 1813.
    1e+07, 0.384, 1923.
    1e+07, 0.384, 2073.
*Expansion
  8.4e-06, 293.
  9.2e-06, 473.
  9.5e-06, 673.
    1e-05, 873.
 1.04e-05, 973.
 1.09e-05,1073.
  1.1e-05,1273.
  1.1e-05,1473.
  1.1e-05,1673.
  1.1e-05,1813.
  1.1e-05,1923.
  1.1e-05,2073.
*Inelastic Heat Fraction
         0.9,
*Plastic, hardening=KINEMATIC
 8.82e+08,   0., 298.
  9.6e+08,   1., 298.
 6.23e+08,   0., 473.
 7.65e+08,   1., 473.
 5.43e+08,   0., 673.
  6.7e+08,   1., 673.
  3.4e+08,   0., 873.
  3.4e+08,   1., 873.
  2.8e+08,   0., 973.
  2.8e+08,   1., 973.
  1.3e+08,   0.,1073.
  1.3e+08,   1.,1073.
    9e+07,   0.,1273.
    9e+07,   1.,1273.
  6.6e+07,   0.,1473.
  6.6e+07,   1.,1473.
  3.1e+07,   0.,1673.
  3.1e+07,   1.,1673.
  1.2e+07,   0.,1813.
  1.2e+07,   1.,1813.
** ... 6 like lines cut
*Specific Heat
611., 293.
624., 373.
653., 473.
674., 573.
691., 673.
703., 773.
713., 873.
725., 973.
735.,1073.
754.,1273.
771.,1473.
787.,1673.
800.,1813.
806.,1923.
806.,2073.
