*Heading
** Job name: Job-1-deformed Model name: Weld-new
** Generated by: Abaqus/CAE 2019
*Preprint, echo=NO, model=NO, history=NO, contact=NO
**
** PARTS
**
*Part, name=Part-1
*Node
      1, -0.0055952305, 0.0500001535, 1.53990413e-07
      2, -0.00559543399, 0.0500001535, -0.0101581523
      3, -0.0249990653, 0.0500004143, -0.0101584159
      4, -0.0249992013, 0.0500004143, -0.000158416107
      5, -0.00559611432, 1.5222173e-07, -0.0101581523
      6, -0.0249997452, 4.16111106e-07, -0.0101584159
      7, -0.0249998812, 4.16112982e-07, -0.000158416107
      8, -0.00559591036, 1.52218959e-07, 1.53990413e-07
      9, 0.00551395118, 0.0500000007, -0.0101580014
     10, 0.00559660606, 0.0500000007, 1.54156581e-07
     11, 0.0055959262, 9.97889531e-12, 1.54156581e-07
     12, 0.00551327085, 1.13408927e-09, -0.0101580014
     13, -0.0055952305, 0.0650001541, 1.52323437e-07
     14, -0.00559523003, 0.0650001541, -0.0101581523
     15, -0.0249988623, 0.0650004148, -0.0101584159
     16, -0.0249989983, 0.0650004148, -0.000158416107
     17, 0.00551415514, 0.0649999976, -0.0101580014
     18, 0.00559681002, 0.0649999976, 1.52496767e-07
     19, 0.0250009336, 0.0499997362, -0.010157736
     20, 0.0250011384, 0.0649997368, -0.010157736
** ... 12124 like lines cut
*Element, type=C3D8T
   1,  166, 1313, 5710,  823,    1,   33,  783,   50
   2, 1313, 1314, 5711, 5710,   33,   34,  784,  783
   3, 1314, 1315, 5712, 5711,   34,   35,  785,  784
   4, 1315, 1316, 5713, 5712,   35,   36,  786,  785
   5, 1316,  216, 1068, 5713,   36,    2,   37,  786
   6,  823, 5710, 5714,  824,   50,  783,  787,   49
   7, 5710, 5711, 5715, 5714,  783,  784,  788,  787
   8, 5711, 5712, 5716, 5715,  784,  785,  789,  788
   9, 5712, 5713, 5717, 5716,  785,  786,  790,  789
  10, 5713, 1068, 1069, 5717,  786,   37,   38,  790
  11,  824, 5714, 5718,  825,   49,  787,  791,   48
  12, 5714, 5715, 5719, 5718,  787,  788,  792,  791
  13, 5715, 5716, 5720, 5719,  788,  789,  793,  792
  14, 5716, 5717, 5721, 5720,  789,  790,  794,  793
  15, 5717, 1069, 1070, 5721,  790,   38,   39,  794
  16,  825, 5718, 5722,  826,   48,  791,  795,   47
  17, 5718, 5719, 5723, 5722,  791,  792,  796,  795
  18, 5719, 5720, 5724, 5723,  792,  793,  797,  796
  19, 5720, 5721, 5725, 5724,  793,  794,  798,  797
  20, 5721, 1070, 1071, 5725,  794,   39,   40,  798
** ... 9880 like lines cut
*Nset, nset=Set-weld, generate
     1,  12144,      1
*Elset, elset=Set-weld, generate
    1,  9900,     1
** Section: Section-TC4
*Solid Section, elset=Set-weld, material=Material-TC4
,
*End Part
**  
**
** ASSEMBLY
**
*Assembly, name=Assembly
**  
*Instance, name=Part-1-1, part=Part-1
*End Instance
**  
*Nset, nset=Set-11, instance=Part-1-1
    2,    3,    5,    6,    9,   12,   14,   15,   17,   19,   20,   23,   26,   27,   29,   30
   37,   38,   39,   40,   41,   55,   56,   57,   58,   59,  435,  436,  437,  438,  439,  457
  458,  459,  460,  461,  462,  463,  464,  503,  504,  505,  506,  507,  508,  509,  510,  511
  512,  513,  514,  515,  516,  517,  518,  519,  520,  543,  544,  545,  546,  547,  659,  660
  661,  662,  663,  681,  682,  683,  684,  685,  686,  687,  688,  689,  690,  691,  692,  693
  711,  712,  713,  714,  719,  720,  721,  722, 3531, 3532, 3533, 3534, 3535, 3536, 3537, 3538
 3539, 3540, 3541, 3542, 3543, 3544, 3545, 3546, 3547, 3548, 3549, 3550, 3779, 3780, 3781, 3782
 3783, 3784, 3785, 3786, 3787, 3788, 3789, 3790, 3791, 3792, 3793, 3794, 3795, 3796, 3797, 3798
 4621, 4622, 4623, 4624, 4625, 4626, 4627, 4628, 4629, 4630, 4631, 4632, 4633, 4634, 4635, 4636
 4637, 4638, 4639, 4640, 4725, 4726, 4727, 4728, 4729, 4730, 4731, 4732, 4733, 4734, 4735, 4736
 4737, 4738, 4739, 4740, 4741, 4742, 4743, 4744
*Elset, elset=Set-11, instance=Part-1-1
 5505, 5510, 5515, 5520, 5525, 5530, 5535, 5540, 5545, 5550, 5555, 5560, 5565, 5570, 5575, 5580
 5585, 5590, 5595, 5600, 5605, 5610, 5615, 5620, 5625, 5630, 5635, 5640, 5645, 5650, 6051, 6052
 6053, 6054, 6055, 6056, 6057, 6058, 6059, 6060, 6061, 6062, 6063, 6064, 6065, 6066, 6067, 6068
 6069, 6070, 6071, 6072, 6073, 6074, 6075, 6076, 6077, 6078, 6079, 6080, 7705, 7710, 7715, 7720
 7725, 7730, 7735, 7740, 7745, 7750, 7755, 7760, 7765, 7770, 7775, 7780, 7785, 7790, 7795, 7800
 7805, 7810, 7815, 7820, 7825, 7830, 7835, 7840, 7845, 7850, 7851, 7852, 7853, 7854, 7855, 7856
 7881, 7882, 7883, 7884, 7885, 7886, 7911, 7912, 7913, 7914, 7915, 7916, 7941, 7942, 7943, 7944
 7945, 7946, 7971, 7972, 7973, 7974, 7975, 7976
*Elset, elset=_Surf-1_S2, internal, instance=Part-1-1
 5621, 5622, 5623, 5624, 5625, 5626, 5627, 5628, 5629, 5630, 5631, 5632, 5633, 5634, 5635, 5636
 5637, 5638, 5639, 5640, 5641, 5642, 5643, 5644, 5645, 5646, 5647, 5648, 5649, 5650, 5971, 5972
 5973, 5974, 5975, 5976, 5977, 5978, 5979, 5980, 5981, 5982, 5983, 5984, 5985, 5986, 5987, 5988
 5989, 5990, 5991, 5992, 5993, 5994, 5995, 5996, 5997, 5998, 5999, 6000, 6001, 6002, 6003, 6004
 6005, 6006, 6007, 6008, 6009, 6010, 6011, 6012, 6013, 6014, 6015, 6016, 6017, 6018, 6019, 6020
 6021, 6022, 6023, 6024, 6025, 6026, 6027, 6028, 6029, 6030, 6031, 6032, 6033, 6034, 6035, 6036
 6037, 6038, 6039, 6040, 6041, 6042, 6043, 6044, 6045, 6046, 6047, 6048, 6049, 6050
*Elset, elset=_Surf-1_S5, internal, instance=Part-1-1
 6075, 6076, 6077, 6078, 6079, 6080, 6105, 6106, 6107, 6108, 6109, 6110, 6135, 6136, 6137, 6138
 6139, 6140, 6165, 6166, 6167, 6168, 6169, 6170, 6195, 6196, 6197, 6198, 6199, 6200
*Surface, type=ELEMENT, name=Surf-1
_Surf-1_S2, S2
_Surf-1_S5, S5
*End Assembly
** 
** MATERIALS
** 
*Material, name=Material-TC4
*Conductivity
  6.8, 293.
  7.4, 373.
  8.7, 473.
  9.8, 573.
 10.3, 673.
 11.8, 773.
 13.7, 873.
 14.4, 973.
 15.8,1073.
 18.3,1273.
 21.7,1473.
 24.5,1673.
 25.3,1813.
  35.,1923.
  35.,2073.
*Density
4424., 298.
4414., 373.
4402., 473.
4388., 573.
4374., 673.
4360., 773.
4344., 873.
4329., 973.
4315.,1073.
4314.,1273.
4277.,1473.
4238.,1673.
4208.,1813.
4184.,1923.
3986.,2073.
3986.,2373.
*Elastic
 1.09e+11,   0.3,  293.
  9.4e+10,  0.31,  473.
    8e+10, 0.325,  673.
  6.6e+10, 0.342,  873.
  4.8e+10, 0.346,  973.
  3.5e+10,  0.35, 1073.
  2.2e+10, 0.358, 1273.
    5e+09, 0.366, 1473.
    1e+08, 0.374, 1673.
    1e+07,  0.38, 1813.
    1e+07, 0.384, 1923.
    1e+07, 0.384, 2073.
*Expansion
  8.4e-06, 293.
  9.2e-06, 473.
  9.5e-06, 673.
    1e-05, 873.
 1.04e-05, 973.
 1.09e-05,1073.
  1.1e-05,1273.
  1.1e-05,1473.
  1.1e-05,1673.
  1.1e-05,1813.
  1.1e-05,1923.
  1.1e-05,2073.
*Inelastic Heat Fraction
         0.9,
*Plastic, hardening=KINEMATIC
 8.82e+08,   0., 298.
  9.6e+08,   1., 298.
 6.23e+08,   0., 473.
 7.65e+08,   1., 473.
 5.43e+08,   0., 673.
  6.7e+08,   1., 673.
  3.4e+08,   0., 873.
  3.4e+08,   1., 873.
  2.8e+08,   0., 973.
  2.8e+08,   1., 973.
  1.3e+08,   0.,1073.
  1.3e+08,   1.,1073.
    9e+07,   0.,1273.
    9e+07,   1.,1273.
  6.6e+07,   0.,1473.
  6.6e+07,   1.,1473.
  3.1e+07,   0.,1673.
  3.1e+07,   1.,1673.
  1.2e+07,   0.,1813.
  1.2e+07,   1.,1813.
** ... 6 like lines cut
*Specific Heat
611., 293.
624., 373.
653., 473.
674., 573.
691., 673.
703., 773.
713., 873.
725., 973.
735.,1073.
754.,1273.
771.,1473.
787.,1673.
800.,1813.
806.,1923.
806.,2073.
** 
** BOUNDARY CONDITIONS
** 
** Name: BC-1 Type: Symmetry/Antisymmetry/Encastre
*Boundary
Set-11, ENCASTRE
** ----------------------------------------------------------------
** 
** PREDEFINED FIELDS
** 
** Name: Predefined weld-1C1D-TEMPERATURE                     Type: TEMPERATURE
*Initial Conditions, type=TEMPERATURE
Part-1-1.1, 572.4368105806101
Part-1-1.2, 572.9361989094467
Part-1-1.3, 558.6668239207272
Part-1-1.4, 558.6563412951995
Part-1-1.5, 570.9449367969003
Part-1-1.6, 555.9524331370814
Part-1-1.7, 555.9363394279626
Part-1-1.8, 571.0629150232531
Part-1-1.9, 572.9425471318372
Part-1-1.10, 572.4379708724306
Part-1-1.11, 571.0400480011523
Part-1-1.12, 570.9291401149751
Part-1-1.13, 558.6482708953685
Part-1-1.14, 558.70441026928
Part-1-1.15, 538.2306184864111
Part-1-1.16, 538.1650329269103
Part-1-1.17, 558.7014681388312
Part-1-1.18, 558.6408034078593
Part-1-1.19, 558.6327334074294
Part-1-1.20, 538.0088168518752
** ... 12124 like lines cut
** Name: Predefined weld-1C1D-STRAIN                     Type: PLASTIC STRAIN
*Initial Conditions, type=PLASTIC STRAIN
Part-1-1.1, -0.0027386749805805117, -0.00022348154726987515, 0.002972033308851117, 0.003529048388608457, -0.0016355262285626415, 0.0007018213340763485
Part-1-1.2, -0.00030676315571564203, -3.977944890898016e-06, 0.00031106471683081416, 0.0001308819321293293, -0.0003442245978100404, 0.00035623994282668337
Part-1-1.3, -3.102672745198901e-05, 1.6895423489574185e-06, 2.9177985454371878e-05, 2.253518606460584e-05, -0.0001314466176588164, 9.790064249093442e-05
Part-1-1.4, 0.0, 0.0, 0.0, 0.0, 0.0, 0.0
Part-1-1.5, 0.0, 0.0, 0.0, 0.0, 0.0, 0.0
Part-1-1.6, 0.0, 0.0, 0.0, 0.0, 0.0, 0.0
Part-1-1.7, 0.0, 0.0, 0.0, 0.0, 0.0, 0.0
Part-1-1.8, 0.0, 0.0, 0.0, 0.0, 0.0, 0.0
Part-1-1.9, 0.0, 0.0, 0.0, 0.0, 0.0, 0.0
Part-1-1.10, 0.0, 0.0, 0.0, 0.0, 0.0, 0.0
Part-1-1.11, 0.0, 0.0, 0.0, 0.0, 0.0, 0.0
Part-1-1.12, 0.0, 0.0, 0.0, 0.0, 0.0, 0.0
Part-1-1.13, 0.0, 0.0, 0.0, 0.0, 0.0, 0.0
Part-1-1.14, 0.0, 0.0, 0.0, 0.0, 0.0, 0.0
Part-1-1.15, 1.3576143989429104e-06, 4.5987249550478105e-06, -5.946845520480758e-06, -7.5415099045903354e-06, -2.7422120705945216e-06, -5.191018032054723e-06
Part-1-1.16, 0.0, 0.0, 0.0, 0.0, 0.0, 0.0
Part-1-1.17, 0.0, 0.0, 0.0, 0.0, 0.0, 0.0
Part-1-1.18, 0.0, 0.0, 0.0, 0.0, 0.0, 0.0
Part-1-1.19, 0.0, 0.0, 0.0, 0.0, 0.0, 0.0
Part-1-1.20, 0.0, 0.0, 0.0, 0.0, 0.0, 0.0
** ... 9880 like lines cut
** Name: Predefined weld-1C1D-STRESS                     Type: STRESS
*Initial Conditions, type=STRESS
Part-1-1.1, -191763969.42580843, 208536901.80275655, 75586269.11300822, 29860246.683881007, 6584653.6454821, -1239599.0836394285
Part-1-1.2, 46320675.62081068, 252413248.6993218, 160901300.9698268, -27066858.628975827, -5155388.059496155, 30693396.298094567
Part-1-1.3, 143492012.11103567, 228031737.6692403, 160446427.99152088, -91451046.21747676, 10532444.124503596, 17390807.46773618
Part-1-1.4, 66409683.63943425, 158881026.7547819, 99668057.5589731, -83588727.30468085, 44544405.00842795, -15862223.509903487
Part-1-1.5, -121108107.52289423, 6627157.773748831, 29697830.672798496, -12273215.883146526, 31684748.334634103, -13678246.288132884
Part-1-1.6, -96072472.70080015, 68500601.04172245, -6934833.603532891, -55724368.06696995, -15953702.881455783, 13883716.65349808
Part-1-1.7, 7023371.0662113875, 76476074.02727947, 3169278.1486676913, -71918461.59391661, -15334883.267373512, 15211380.220026234
Part-1-1.8, 56147527.152134016, 57719009.14799871, 15227087.974439861, -78007414.33204783, 21098753.90790529, -3735270.0607053763
Part-1-1.9, 29906500.01990595, 37804417.171766914, 11710063.747345794, -71213325.05841824, 48317239.85342534, -29075873.320804913
Part-1-1.10, -33514152.468764298, 1167760.474639407, 6262567.366233363, -49179067.17559518, 29970431.86843306, -14103822.783066308
Part-1-1.11, -33488212.532731663, 9535822.294152392, 3936731.436864665, -64284797.85082595, -7767031.8817786435, 2725207.4434453035
Part-1-1.12, -9181644.318129916, -14919300.352662915, -1701575.3716464168, -54652372.417021126, -13273045.489746328, 8250179.08872545
Part-1-1.13, 8882762.190978702, -39091037.32763803, -1928105.8639708294, -44357788.84953788, -3743021.2643000484, 3966747.50577373
Part-1-1.14, 13766355.807771567, -50441151.42843866, 1072503.9522636717, -33373620.296042897, 9270629.761598654, -6907504.581943833
Part-1-1.15, 7738423.837347211, -52639052.53958895, 2374494.4614139763, -26029660.326937743, 10382142.952974452, -8142861.578160703
Part-1-1.16, -5748829.326732255, -18027749.02989475, 2052527.193129803, -50448278.10545519, -4588725.309958851, 3056106.135659291
Part-1-1.17, -6914879.256483664, -44323798.58437481, -142831.5898621287, -37766394.086978845, -8597122.798598569, 9519388.42326899
Part-1-1.18, -3842918.4158904324, -66874225.75174945, 424478.58024288516, -24783553.11049737, -6312291.800101015, 8598689.030481113
Part-1-1.19, 2497788.2403126867, -84694420.79100843, 2731136.76135482, -10038536.006487258, -374126.60924318974, 1685776.9603223202
Part-1-1.20, 4268809.24991278, -90750316.10831214, -141112.15730642516, -2345360.58927506, 2435591.594224609, -2988243.387900557
** ... 9880 like lines cut
** STEP: Step-1
** 
*Step, name=Step-1, nlgeom=YES, inc=10000
*Coupled Temperature-displacement, creep=none, deltmx=1000.
0.1, 1., 1e-05, 1.
** 
** LOADS
** 
** Name: Load-1   Type: Surface heat flux
*Dsflux
Surf-1, S, 10086.
** 
** OUTPUT REQUESTS
** 
*Restart, write, frequency=0
** 
** FIELD OUTPUT: F-Output-1
** 
*Output, field, variable=PRESELECT
** 
** HISTORY OUTPUT: H-Output-1
** 
*Output, history, variable=PRESELECT
*End Step
